Version 4
SHEET 1 12 18
WIRE 0 0 0 8
WIRE 16 0 24 0
WIRE 32 0 24 0
WIRE 32 0 40 0
WIRE 48 0 48 8
WIRE 48 0 40 0
WIRE 0 16 0 24
WIRE 0 16 0 8
WIRE 32 16 32 24
WIRE 48 16 48 8
WIRE 0 32 0 24
WIRE 16 32 24 32
WIRE 32 32 24 32
WIRE 32 32 32 24
FLAG 16 0 0
SYMBOL _app\myvoltage 0 0 R270
SYMATTR InstName V1
SYMATTR Value 12
SYMBOL _app\\appres 0 32 R0
SYMATTR InstName res0id0
SYMATTR Value 100R
SYMBOL _app\\appled 32 16 R0
SYMATTR InstName led0id1
SYMATTR Value QTLP690C
TEXT -28 -20 Left 2 !.tran 10
