* D:\___Studia___\_PracaInzynierska_\BScThesis\Project\Desktop\save.asc
V1 0 0 12
.tran 10
.backanno
.end
