Version 4
SHEET 1 15 15
FLAG 16 0 0
SYMBOL _app\myvoltage 0 0 R270
SYMATTR InstName V1
SYMATTR Value 12
SYMBOL _app\\appres 64 160 R0
SYMATTR InstName res0id0
SYMATTR Value 1000R
SYMBOL _app\\appled 128 64 R0
SYMATTR InstName led0id1
SYMATTR Value QTLP690C
SYMBOL _app\\appres 48 64 R0
SYMATTR InstName res0id3
SYMATTR Value 1
TEXT -28 -20 Left 2 !.tran 10
