Version 4
SHEET 1 100 4
FLAG 16 0 0
SYMBOL _app\myvoltage 0 0 R270
SYMATTR InstName V1
SYMATTR Value 12
SYMBOL _app\\appres 112 176 R0
SYMATTR InstName res0
SYMATTR Value 1
SYMBOL  96 128 R0
SYMATTR InstName 
SYMATTR Value 1
TEXT -28 -20 Left 2 !.tran 10
