Version 4
SHEET 1 12 18
FLAG 16 0 0
SYMBOL _app\myvoltage 0 0 R270
SYMATTR InstName V1
SYMATTR Value 12
SYMBOL _app\\appres 80 144 R0
SYMATTR InstName res0id3
SYMATTR Value 1
TEXT -28 -20 Left 2 !.tran 10
