Version 4
SHEET 1 12 18
WIRE 0 0 0 8
WIRE 16 0 24 0
WIRE 32 0 24 0
WIRE 32 0 40 0
WIRE 48 0 40 0
WIRE 48 0 56 0
WIRE 64 0 56 0
WIRE 64 0 72 0
WIRE 80 0 72 0
WIRE 80 0 88 0
WIRE 96 0 88 0
WIRE 96 0 104 0
WIRE 112 0 112 8
WIRE 112 0 104 0
WIRE 0 16 0 24
WIRE 0 16 0 8
WIRE 112 16 112 24
WIRE 112 16 112 8
WIRE 0 32 0 40
WIRE 0 32 0 24
WIRE 112 32 112 24
WIRE 112 32 120 32
WIRE 128 32 128 40
WIRE 128 32 120 32
WIRE 0 48 0 56
WIRE 0 48 0 40
WIRE 128 48 128 56
WIRE 128 48 128 40
WIRE 0 64 0 72
WIRE 0 64 0 56
WIRE 128 64 128 72
WIRE 128 64 128 56
WIRE 0 80 0 88
WIRE 0 80 0 72
WIRE 96 80 96 88
WIRE 96 80 104 80
WIRE 112 80 104 80
WIRE 128 80 128 72
WIRE 0 96 0 104
WIRE 0 96 0 88
WIRE 96 96 96 104
WIRE 96 96 96 88
WIRE 0 112 0 120
WIRE 0 112 0 104
WIRE 96 112 96 120
WIRE 96 112 96 104
WIRE 0 128 0 120
WIRE 0 128 8 128
WIRE 16 128 8 128
WIRE 16 128 24 128
WIRE 32 128 24 128
WIRE 32 128 40 128
WIRE 48 128 40 128
WIRE 48 128 56 128
WIRE 64 128 56 128
WIRE 64 128 72 128
WIRE 80 128 72 128
WIRE 96 128 96 120
FLAG 16 0 0
SYMBOL _app\myvoltage 0 0 R270
SYMATTR InstName V1
SYMATTR Value 12
SYMBOL _app\\appres 80 128 R0
SYMATTR InstName res0id0
SYMATTR Value 1
SYMBOL _app\\appled 112 80 R0
SYMATTR InstName led0id1
SYMATTR Value 1
TEXT -28 -20 Left 2 !.tran 10
