* D:\___Studia___\_PracaInzynierska_\BScThesis\Project\Desktop\save\save.asc
V1 NC_01 0 12
.tran 10
.backanno
.end
