Version 4
SHEET 1 12 18
FLAG 16 0 0
SYMBOL _app\myvoltage 0 0 R270
SYMATTR InstName V1
SYMATTR Value 12
SYMBOL _app\\appres 96 176 R0
SYMATTR InstName res0id0
SYMATTR Value 100R
SYMBOL _app\\appled 112 128 R0
SYMATTR InstName led0id1
SYMATTR Value QTLP690C
TEXT -28 -20 Left 2 !.tran 10
