* D:\___Studia___\_PracaInzynierska_\BScThesis\Project\Desktop\save\save.asc
V1 N001 0 12
res0id0 0 N001 1000R
.tran 10
.backanno
.end
