Version 4
SHEET 1 88 148
WIRE 64 0 16 0
WIRE 0 48 0 0
WIRE 48 48 0 48
WIRE 64 48 64 0
FLAG 16 0 0
SYMBOL _app\\myvoltage 0 0 R270
SYMATTR InstName V1
SYMATTR Value 12
SYMBOL _app\\appres 48 48 R0
SYMATTR InstName res0id0
SYMATTR Value 1
TEXT -32 -24 Left 2 !.tran 10
